Circuit: * O:\SPICE\Projects\PFETchar3.asc

Direct Newton iteration failed to find .op point.  (Use ".option noopiter" to skip.)
Starting Gmin stepping
Gmin = 10
vernier = 0.5
vernier = 0.25
Gmin = 2.46724
vernier = 0.333333
Gmin = 1.19763
vernier = 0.166667
vernier = 0.0833333
vernier = 0.0416667
vernier = 0.0208333
Gmin = 1.18853
vernier = 0.0277778
vernier = 0.0138889
vernier = 0.00694444
Gmin = 1.1461
vernier = 0.00925925
Gmin = 1.12249
vernier = 0.0123457
vernier = 0.00617283
vernier = 0.00308642
vernier = 0.00411522
Gmin = 1.11587
vernier = 0.00548696
Gmin = 1.10219
vernier = 0.00731595
vernier = 0.00365797
vernier = 0.00182899
vernier = 0.00243865
Gmin = 1.09833
vernier = 0.00325153
Gmin = 1.09033
vernier = 0.00433537
vernier = 0.00216769
vernier = 0.00108384
vernier = 0.00144512
Gmin = 1.08807
vernier = 0.00192683
Gmin = 1.08336
vernier = 0.00256911
vernier = 0.00128455
vernier = 0.000642277
vernier = 0.000856369
Gmin = 1.08157
vernier = 0.00114182
Gmin = 1.07887
vernier = 0.00152243
vernier = 0.00202991
vernier = 0.00101495
vernier = 0.000507477
Gmin = 1.0761
vernier = 0.000676636
Gmin = 1.07451
vernier = 0.000902182
vernier = 0.00120291
Gmin = 1.07191
vernier = 0.00160388
vernier = 0.000801939
vernier = 0.000400969
Gmin = 1.07051
vernier = 0.000534626
vernier = 0.000712834
Gmin = 1.06897
vernier = 0.000950445
vernier = 0.00126726
Gmin = 1.06654
vernier = 0.00063363
vernier = 0.000475223
vernier = 0.00063363
Gmin = 1.06574
vernier = 0.00084484
vernier = 0.00112645
Gmin = 1.06359
vernier = 0.000563226
vernier = 0.00042242
vernier = 0.000563226
Gmin = 1.06288
vernier = 0.000750968
vernier = 0.00100129
Gmin = 1.06097
vernier = 0.000500645
Gmin = 0
Gmin stepping failed

Starting source stepping with srcstepmethod=0
Source Step = 3.0303%
Source Step = 33.3333%
Source Step = 63.6364%
Source Step = 93.9394%
Source stepping succeeded in finding the operating point.

Heightened Def Con from 0.000314416 to 0.000314416

Date: Wed Sep 13 19:01:37 2017
Total elapsed time: 19.854 seconds.

tnom = 27
temp = 27
method = modified trap
totiter = 444222
traniter = 430851
tranpoints = 101140
accept = 83008
rejected = 18133
matrix size = 191
fillins = 209
solver = Normal
Thread vector: 51.0/22.5[4] 7.3/3.2[4] 7.5/3.5[4] 0.7/1.4[1]  2592/500
Matrix Compiler1: 23.26 KB object code size  4.9/2.1/[1.3]
Matrix Compiler2: 19.98 KB object code size  5.7/3.3/[1.1]


