Circuit: * O:\SPICE\Projects\PFETchar2.asc

Direct Newton iteration for .op point succeeded.

Date: Thu Dec 14 18:35:43 2017
Total elapsed time: 0.700 seconds.

tnom = 27
temp = 27
method = modified trap
totiter = 41196
traniter = 41167
tranpoints = 16293
accept = 14664
rejected = 1629
matrix size = 46
fillins = 38
solver = Normal
Matrix Compiler1: 5.48 KB object code size  1.3/0.5/[0.3]
Matrix Compiler2: 4.60 KB object code size  0.5/0.5/[0.4]


