Circuit: * C:\Users\ohumench\Documents\LT_simulation\antenna amplifier\BF245_BAse.asc

Direct Newton iteration for .op point succeeded.

Date: Tue Aug 14 17:53:03 2018
Total elapsed time: 0.050 seconds.

tnom = 27
temp = 27
method = trap
totiter = 4
traniter = 0
tranpoints = 0
accept = 0
rejected = 0
matrix size = 7
fillins = 0
solver = Normal
Matrix Compiler1:      13 opcodes
Matrix Compiler2: 487 bytes object code size
