Stray ".ends" card: .ends
Circuit: * C:\Users\ohumench\Documents\LT_simulation\Current source\DC-DC_load _teoretical.asc

Limiting rise time of source v4 to 1e-007
Limiting fall time of source v4 to 1e-007
Direct Newton iteration failed to find .op point.  (Use ".option noopiter" to skip.)
Starting Gmin stepping
Gmin = 10
vernier = 0.5
vernier = 0.666667
Gmin = 3.04418
vernier = 0.888888
vernier = 0.444444
vernier = 0.222222
Gmin = 1.26759
vernier = 0.111111
vernier = 0.0555555
vernier = 0.0277778
Gmin = 1.12121
vernier = 0.037037
vernier = 0.0185185
vernier = 0.00925925
Gmin = 1.08058
vernier = 0.0123457
vernier = 0.00617283
vernier = 0.00308642
Gmin = 1.06652
vernier = 0.00411522
vernier = 0.00205761
vernier = 0.00102881
vernier = 0.000514403
Gmin = 1.06323
Gmin = 0
Gmin stepping failed

Starting source stepping with srcstepmethod=0
Source Step = 3.0303%
Source Step = 33.3333%
Source Step = 63.6364%
Source Step = 93.9394%
Source stepping succeeded in finding the operating point.


Date: Thu Jul 12 11:20:12 2018
Total elapsed time: 1.303 seconds.

tnom = 27
temp = 27
method = modified trap
totiter = 6926
traniter = 2727
tranpoints = 1237
accept = 1172
rejected = 65
matrix size = 182
fillins = 288
solver = Normal
Thread vector: 10.7/8.0[4] 5.6/2.8[4] 3.1/1.6[3] 0.6/1.1[1]  2592/500
Matrix Compiler1: 20.05 KB object code size  7.0/3.6/[1.7]
Matrix Compiler2: 18.64 KB object code size  2.8/4.3/[1.5]

