Circuit: * C:\Users\ohumench\Documents\LT_simulation\Current source\Draft1.asc


Date: Fri Aug 10 16:34:22 2018
Total elapsed time: 0.078 seconds.

tnom = 27
temp = 27
method = trap
totiter = 0
traniter = 0
tranpoints = 0
accept = 0
rejected = 0
matrix size = 3
fillins = 0
solver = Normal

